/*--------------------------------*- C++ -*----------------------------------*\
  =========                 |
  \\      /  F ield         | OpenFOAM: The Open Source CFD Toolbox
   \\    /   O peration     | Website:  https://openfoam.org
    \\  /    A nd           | Version:  8
     \\/     M anipulation  |
\*---------------------------------------------------------------------------*/
FoamFile
{
    version     2.0;
    format      ascii;
    class       dictionary;
    object      surfaceFeaturesDict;
}
// * * * * * * * * * * * * * * * * * * * * * * * * * * * * * * * * * * * * * //

surfaces
(
	"EndPlate_Left.stl"
	"EndPlate_Right.stl"
	"LowerWing.stl"
	"UpperWing.stl"
);

// Identify a feature when angle between faces < includedAngle
includedAngle       140;

subsetFeatures
{
    // Keep nonManifold edges (edges with >2 connected faces)
    nonManifoldEdges       no;

    // Keep open edges (edges with 1 connected face)
    openEdges       yes;
}

writeObj 	 yes;

// ************************************************************************* //
